<?xml version="1.0" encoding="UTF-8"?>
<routes xmlns:xsi="http://www.w3.org/2001/XMLSchema-instance" xsi:noNamespaceSchemaLocation="http://sumo.dlr.de/xsd/routes_file.xsd">

   <vType id="eTruck"
       vClass="truck"
       carFollowModel="EIDM"
       tau="0.5"
       minGap="3.0"
       accel="0.8"
       decel="4.5"
       sigma="0.1"
       length="12"
       maxSpeed="33.33"
       color="0,0,1"
       mass="12000"
       guiShape="truck">
        <param key="has.battery.device" value="true"/>
        <param key="device.battery.capacity" value="600000"/>
        <param key="device.battery.efficiency" value="0.95"/>
        <param key="device.battery.chargeLevel" value="400000"/>
   </vType>

   <route id="r1" edges="1389427542 1389427540 24963101"/>

   <!-- Fleet 1 -->
   <vehicle id="fleet1_leader" type="eTruck" route="r1" depart="0" departSpeed="max"/>
   <vehicle id="fleet1_f2"     type="eTruck" route="r1" depart="1" departSpeed="max"/>
   <vehicle id="fleet1_f3"     type="eTruck" route="r1" depart="2" departSpeed="max"/>

   <!-- Fleet 2 -->
   <vehicle id="fleet2_leader" type="eTruck" route="r1" depart="30" departSpeed="max"/>
   <vehicle id="fleet2_f2"     type="eTruck" route="r1" depart="31" departSpeed="max"/>
   <vehicle id="fleet2_f3"     type="eTruck" route="r1" depart="32" departSpeed="max"/>

</routes>




    