<?xml version="1.0" encoding="UTF-8"?>

<!-- generated on 2025-11-10 15:15:17 by Eclipse SUMO netconvert Version 1.24.0
<netconvertConfiguration xmlns:xsi="http://www.w3.org/2001/XMLSchema-instance" xsi:noNamespaceSchemaLocation="http://sumo.dlr.de/xsd/netconvertConfiguration.xsd">

    <input>
        <osm-files value="export.osm"/>
    </input>

    <output>
        <output-file value="G15_3lane.net.xml"/>
    </output>

    <projection>
        <proj.utm value="true"/>
        <proj.plain-geo value="true"/>
    </projection>

</netconvertConfiguration>
-->

<net version="1.20" junctionCornerDetail="5" limitTurnSpeed="5.50" xmlns:xsi="http://www.w3.org/2001/XMLSchema-instance" xsi:noNamespaceSchemaLocation="http://sumo.dlr.de/xsd/net_file.xsd">

    <location netOffset="-308615.34,-3362846.95" convBoundary="0.00,0.00,15480.81,26759.28" origBoundary="121.003253,30.384794,121.169221,30.623766" projParameter="+proj=utm +zone=51 +ellps=WGS84 +datum=WGS84 +units=m +no_defs"/>

    <type id="highway.motorway" priority="14" numLanes="2" speed="39.44" allow="private emergency authority army vip passenger hov taxi bus coach delivery truck trailer motorcycle evehicle custom1 custom2" oneway="1"/>

    <edge id=":1138675783_0" function="internal">
        <lane id=":1138675783_0_0" index="0" allow="private emergency authority army vip passenger hov taxi bus coach delivery truck trailer motorcycle evehicle custom1 custom2" speed="33.61" length="0.29" shape="2606.62,22875.35 2606.81,22875.09"/>
        <lane id=":1138675783_0_1" index="1" allow="private emergency authority army vip passenger hov taxi bus coach delivery truck trailer motorcycle evehicle custom1 custom2" speed="33.61" length="0.29" shape="2609.23,22877.20 2609.40,22876.96"/>
        <lane id=":1138675783_0_2" index="2" allow="private emergency authority army vip passenger hov taxi bus coach delivery truck trailer motorcycle evehicle custom1 custom2" speed="33.61" length="0.29" shape="2611.84,22879.05 2611.99,22878.84"/>
    </edge>
    <edge id=":1151607463_0" function="internal">
        <lane id=":1151607463_0_0" index="0" allow="private emergency authority army vip passenger hov taxi bus coach delivery truck trailer motorcycle evehicle custom1 custom2" speed="27.78" length="0.47" shape="3073.73,22149.14 3073.88,22148.86"/>
        <lane id=":1151607463_0_1" index="1" allow="private emergency authority army vip passenger hov taxi bus coach delivery truck trailer motorcycle evehicle custom1 custom2" speed="27.78" length="0.47" shape="3076.49,22150.75 3076.72,22150.34"/>
        <lane id=":1151607463_0_2" index="2" allow="private emergency authority army vip passenger hov taxi bus coach delivery truck trailer motorcycle evehicle custom1 custom2" speed="27.78" length="0.47" shape="3079.25,22152.37 3079.56,22151.81"/>
    </edge>
    <edge id=":13041085312_0" function="internal">
        <lane id=":13041085312_0_0" index="0" allow="private emergency authority army vip passenger hov taxi bus coach delivery truck trailer motorcycle evehicle custom1 custom2" speed="39.44" length="0.31" shape="2012.23,23734.51 2012.16,23734.59"/>
        <lane id=":13041085312_0_1" index="1" allow="private emergency authority army vip passenger hov taxi bus coach delivery truck trailer motorcycle evehicle custom1 custom2" speed="39.44" length="0.31" shape="2009.79,23732.43 2009.60,23732.67"/>
        <lane id=":13041085312_0_2" index="2" allow="private emergency authority army vip passenger hov taxi bus coach delivery truck trailer motorcycle evehicle custom1 custom2" speed="39.44" length="0.31" shape="2007.36,23730.35 2007.04,23730.75"/>
    </edge>
    <edge id=":13041085313_0" function="internal">
        <lane id=":13041085313_0_0" index="0" allow="private emergency authority army vip passenger hov taxi bus coach delivery truck trailer motorcycle evehicle custom1 custom2" speed="39.44" length="0.34" shape="2043.53,23694.98 2043.20,23695.43"/>
        <lane id=":13041085313_0_1" index="1" allow="private emergency authority army vip passenger hov taxi bus coach delivery truck trailer motorcycle evehicle custom1 custom2" speed="39.44" length="0.34" shape="2040.88,23693.19 2040.68,23693.46"/>
        <lane id=":13041085313_0_2" index="2" allow="private emergency authority army vip passenger hov taxi bus coach delivery truck trailer motorcycle evehicle custom1 custom2" speed="39.44" length="0.34" shape="2038.23,23691.40 2038.16,23691.49"/>
    </edge>
    <edge id=":13041085316_0" function="internal">
        <lane id=":13041085316_0_0" index="0" allow="private emergency authority army vip passenger hov taxi bus coach delivery truck trailer motorcycle evehicle custom1 custom2" speed="39.44" length="0.30" shape="2024.34,23681.57 2024.53,23681.32"/>
        <lane id=":13041085316_0_1" index="1" allow="private emergency authority army vip passenger hov taxi bus coach delivery truck trailer motorcycle evehicle custom1 custom2" speed="39.44" length="0.30" shape="2026.89,23683.50 2027.07,23683.26"/>
        <lane id=":13041085316_0_2" index="2" allow="private emergency authority army vip passenger hov taxi bus coach delivery truck trailer motorcycle evehicle custom1 custom2" speed="39.44" length="0.30" shape="2029.44,23685.43 2029.62,23685.20"/>
    </edge>
    <edge id=":13041085317_0" function="internal">
        <lane id=":13041085317_0_0" index="0" allow="private emergency authority army vip passenger hov taxi bus coach delivery truck trailer motorcycle evehicle custom1 custom2" speed="39.44" length="0.30" shape="1995.18,23720.11 1995.37,23719.85"/>
        <lane id=":13041085317_0_1" index="1" allow="private emergency authority army vip passenger hov taxi bus coach delivery truck trailer motorcycle evehicle custom1 custom2" speed="39.44" length="0.30" shape="1997.74,23722.02 1997.92,23721.78"/>
        <lane id=":13041085317_0_2" index="2" allow="private emergency authority army vip passenger hov taxi bus coach delivery truck trailer motorcycle evehicle custom1 custom2" speed="39.44" length="0.30" shape="2000.31,23723.93 2000.48,23723.71"/>
    </edge>
    <edge id=":2355708099_0" function="internal">
        <lane id=":2355708099_0_0" index="0" allow="private emergency authority army vip passenger hov taxi bus coach delivery truck trailer motorcycle evehicle custom1 custom2" speed="39.44" length="0.30" shape="193.31,26380.97 193.19,26381.21"/>
        <lane id=":2355708099_0_1" index="1" allow="private emergency authority army vip passenger hov taxi bus coach delivery truck trailer motorcycle evehicle custom1 custom2" speed="39.44" length="0.30" shape="190.48,26379.48 190.34,26379.75"/>
        <lane id=":2355708099_0_2" index="2" allow="private emergency authority army vip passenger hov taxi bus coach delivery truck trailer motorcycle evehicle custom1 custom2" speed="39.44" length="0.30" shape="187.65,26378.00 187.50,26378.28"/>
    </edge>
    <edge id=":269642980_0" function="internal">
        <lane id=":269642980_0_0" index="0" allow="private emergency authority army vip passenger hov taxi bus coach delivery truck trailer motorcycle evehicle custom1 custom2" speed="27.78" length="0.35" shape="3096.98,22160.53 3096.75,22160.93"/>
        <lane id=":269642980_0_1" index="1" allow="private emergency authority army vip passenger hov taxi bus coach delivery truck trailer motorcycle evehicle custom1 custom2" speed="27.78" length="0.35" shape="3094.17,22158.99 3094.00,22159.30"/>
        <lane id=":269642980_0_2" index="2" allow="private emergency authority army vip passenger hov taxi bus coach delivery truck trailer motorcycle evehicle custom1 custom2" speed="27.78" length="0.35" shape="3091.36,22157.46 3091.24,22157.67"/>
    </edge>
    <edge id=":269642983_0" function="internal">
        <lane id=":269642983_0_0" index="0" allow="private emergency authority army vip passenger hov taxi bus coach delivery truck trailer motorcycle evehicle custom1 custom2" speed="33.61" length="0.30" shape="2621.50,22895.59 2621.31,22895.86"/>
        <lane id=":269642983_0_1" index="1" allow="private emergency authority army vip passenger hov taxi bus coach delivery truck trailer motorcycle evehicle custom1 custom2" speed="33.61" length="0.30" shape="2618.90,22893.73 2618.73,22893.97"/>
        <lane id=":269642983_0_2" index="2" allow="private emergency authority army vip passenger hov taxi bus coach delivery truck trailer motorcycle evehicle custom1 custom2" speed="33.61" length="0.30" shape="2616.30,22891.86 2616.14,22892.08"/>
    </edge>
    <edge id=":269642996_0" function="internal">
        <lane id=":269642996_0_0" index="0" allow="private emergency authority army vip passenger hov taxi bus coach delivery truck trailer motorcycle evehicle custom1 custom2" speed="39.44" length="0.69" shape="253.91,26246.20 253.88,26246.26 253.85,26246.30 253.83,26246.34 253.81,26246.40"/>
        <lane id=":269642996_0_1" index="1" allow="private emergency authority army vip passenger hov taxi bus coach delivery truck trailer motorcycle evehicle custom1 custom2" speed="39.44" length="0.69" shape="251.19,26244.52 251.08,26244.69 251.01,26244.81 250.95,26244.94 250.87,26245.13"/>
        <lane id=":269642996_0_2" index="2" allow="private emergency authority army vip passenger hov taxi bus coach delivery truck trailer motorcycle evehicle custom1 custom2" speed="39.44" length="0.69" shape="248.46,26242.84 248.29,26243.13 248.17,26243.33 248.07,26243.54 247.93,26243.85"/>
    </edge>
    <edge id=":3633695503_0" function="internal">
        <lane id=":3633695503_0_0" index="0" allow="private emergency authority army vip passenger hov taxi bus coach delivery truck trailer motorcycle evehicle custom1 custom2" speed="39.44" length="0.30" shape="1799.15,23982.93 1799.33,23982.67"/>
        <lane id=":3633695503_0_1" index="1" allow="private emergency authority army vip passenger hov taxi bus coach delivery truck trailer motorcycle evehicle custom1 custom2" speed="39.44" length="0.30" shape="1801.72,23984.82 1801.90,23984.58"/>
        <lane id=":3633695503_0_2" index="2" allow="private emergency authority army vip passenger hov taxi bus coach delivery truck trailer motorcycle evehicle custom1 custom2" speed="39.44" length="0.30" shape="1804.30,23986.72 1804.47,23986.50"/>
    </edge>
    <edge id=":3633695505_0" function="internal">
        <lane id=":3633695505_0_0" index="0" allow="private emergency authority army vip passenger hov taxi bus coach delivery truck trailer motorcycle evehicle custom1 custom2" speed="39.44" length="0.30" shape="1816.71,23995.67 1816.55,23995.88"/>
        <lane id=":3633695505_0_1" index="1" allow="private emergency authority army vip passenger hov taxi bus coach delivery truck trailer motorcycle evehicle custom1 custom2" speed="39.44" length="0.30" shape="1814.15,23993.75 1813.97,23993.99"/>
        <lane id=":3633695505_0_2" index="2" allow="private emergency authority army vip passenger hov taxi bus coach delivery truck trailer motorcycle evehicle custom1 custom2" speed="39.44" length="0.30" shape="1811.59,23991.83 1811.39,23992.09"/>
    </edge>
    <edge id=":3633695582_0" function="internal">
        <lane id=":3633695582_0_0" index="0" allow="private emergency authority army vip passenger hov taxi bus coach delivery truck trailer motorcycle evehicle custom1 custom2" speed="39.44" length="0.30" shape="1277.22,24690.26 1277.41,24690.00"/>
        <lane id=":3633695582_0_1" index="1" allow="private emergency authority army vip passenger hov taxi bus coach delivery truck trailer motorcycle evehicle custom1 custom2" speed="39.44" length="0.30" shape="1279.81,24692.14 1279.98,24691.90"/>
        <lane id=":3633695582_0_2" index="2" allow="private emergency authority army vip passenger hov taxi bus coach delivery truck trailer motorcycle evehicle custom1 custom2" speed="39.44" length="0.30" shape="1282.40,24694.02 1282.55,24693.81"/>
    </edge>
    <edge id=":3633695589_0" function="internal">
        <lane id=":3633695589_0_0" index="0" allow="private emergency authority army vip passenger hov taxi bus coach delivery truck trailer motorcycle evehicle custom1 custom2" speed="39.44" length="0.30" shape="1295.21,24704.08 1295.04,24704.31"/>
        <lane id=":3633695589_0_1" index="1" allow="private emergency authority army vip passenger hov taxi bus coach delivery truck trailer motorcycle evehicle custom1 custom2" speed="39.44" length="0.30" shape="1292.63,24702.18 1292.46,24702.42"/>
        <lane id=":3633695589_0_2" index="2" allow="private emergency authority army vip passenger hov taxi bus coach delivery truck trailer motorcycle evehicle custom1 custom2" speed="39.44" length="0.30" shape="1290.06,24700.28 1289.88,24700.52"/>
    </edge>

    <edge id="1389427540" from="269642980" to="269642983" priority="14" type="highway.motorway" spreadType="center" shape="3094.09,22159.15 3066.62,22205.64 2922.82,22449.10 2743.84,22719.68 2618.81,22893.85">
        <lane id="1389427540_0" index="0" allow="private emergency authority army vip passenger hov taxi bus coach delivery truck trailer motorcycle evehicle custom1 custom2" speed="27.78" length="875.25" shape="3096.75,22160.93 3069.38,22207.27 2925.53,22450.80 2746.47,22721.50 2621.50,22895.59"/>
        <lane id="1389427540_1" index="1" allow="private emergency authority army vip passenger hov taxi bus coach delivery truck trailer motorcycle evehicle custom1 custom2" speed="27.78" length="875.25" shape="3094.00,22159.30 3066.62,22205.64 2922.82,22449.10 2743.84,22719.68 2618.90,22893.73"/>
        <lane id="1389427540_2" index="2" allow="private emergency authority army vip passenger hov taxi bus coach delivery truck trailer motorcycle evehicle custom1 custom2" speed="27.78" length="875.25" shape="3091.24,22157.67 3063.87,22204.02 2920.11,22447.41 2741.20,22717.86 2616.30,22891.86"/>
        <param key="ref" value="G15"/>
    </edge>
    <edge id="1389427541" from="1151607463" to="1139898813" priority="14" type="highway.motorway" spreadType="center" shape="3076.61,22150.55 3175.72,21959.80 5321.77,17682.97 6633.66,15042.74 6737.16,14838.16 7235.31,13830.81 7398.33,13523.96 7546.67,13264.76 7715.11,12988.80 7831.37,12810.24 8024.01,12530.96 8157.63,12346.31 8300.93,12159.07 9187.46,11065.11 10833.02,9059.14 11574.18,8142.33 11844.96,7808.29 12095.12,7499.60 13343.94,5939.45 13653.92,5521.54 13781.89,5335.37 13948.46,5082.66 14113.66,4803.27 14265.88,4531.07 14390.47,4293.02 14550.81,3961.39 14685.40,3656.34 14790.98,3394.79 14875.28,3144.50 14955.10,2909.49 15000.52,2769.95 15025.73,2687.60 15080.19,2501.66 15157.52,2214.82 15193.46,2063.30 15265.42,1769.34 15326.56,1437.02 15348.93,1252.81 15392.15,928.53 15402.80,829.99 15418.75,661.07 15426.51,566.79 15436.79,421.19 15466.07,0.00">
        <lane id="1389427541_0" index="0" allow="private emergency authority army vip passenger hov taxi bus coach delivery truck trailer motorcycle evehicle custom1 custom2" speed="27.78" length="25708.22" shape="3073.88,22148.86 3172.87,21958.34 5318.91,17681.54 6630.80,15041.30 6734.30,14836.73 7232.47,13829.35 7395.53,13522.41 7543.92,13263.13 7712.40,12987.10 7828.71,12808.45 8021.40,12529.12 8155.07,12344.40 8298.41,12157.09 9184.98,11063.09 10830.53,9057.12 11571.69,8140.31 11842.47,7806.27 12092.62,7497.59 13341.41,5937.50 13651.31,5519.68 13779.24,5333.58 13945.75,5080.97 14110.89,4801.67 14263.07,4529.54 14387.61,4291.58 14547.90,3960.05 14682.45,3655.10 14787.98,3393.68 14872.25,3143.47 14952.06,2908.48 14997.46,2768.98 15022.67,2686.68 15077.11,2500.80 15154.42,2214.04 15190.35,2062.55 15262.29,1768.67 15323.39,1436.54 15345.76,1252.41 15388.97,928.14 15399.62,829.67 15415.57,660.79 15423.32,566.55 15433.60,420.96 15462.88,-0.22"/>
        <lane id="1389427541_1" index="1" allow="private emergency authority army vip passenger hov taxi bus coach delivery truck trailer motorcycle evehicle custom1 custom2" speed="27.78" length="25708.22" shape="3076.72,22150.34 3175.72,21959.80 5321.77,17682.97 6633.66,15042.74 6737.16,14838.16 7235.31,13830.81 7398.33,13523.96 7546.67,13264.76 7715.11,12988.80 7831.37,12810.24 8024.01,12530.96 8157.63,12346.31 8300.93,12159.07 9187.46,11065.11 10833.02,9059.14 11574.18,8142.33 11844.96,7808.29 12095.12,7499.60 13343.94,5939.45 13653.92,5521.54 13781.89,5335.37 13948.46,5082.66 14113.66,4803.27 14265.88,4531.07 14390.47,4293.02 14550.81,3961.39 14685.40,3656.34 14790.98,3394.79 14875.28,3144.50 14955.10,2909.49 15000.52,2769.95 15025.73,2687.60 15080.19,2501.66 15157.52,2214.82 15193.46,2063.30 15265.42,1769.34 15326.56,1437.02 15348.93,1252.81 15392.15,928.53 15402.80,829.99 15418.75,661.07 15426.51,566.79 15436.79,421.19 15466.07,-0.00"/>
        <lane id="1389427541_2" index="2" allow="private emergency authority army vip passenger hov taxi bus coach delivery truck trailer motorcycle evehicle custom1 custom2" speed="27.78" length="25708.22" shape="3079.56,22151.81 3178.57,21961.25 5324.64,17684.40 6636.52,15044.17 6740.03,14839.59 7238.16,13832.27 7401.13,13525.51 7549.43,13266.38 7717.81,12990.51 7834.03,12812.02 8026.62,12532.81 8160.20,12348.22 8303.44,12161.05 9189.94,11067.13 10835.50,9061.16 11576.66,8144.34 11847.44,7810.30 12097.61,7501.61 13346.48,5941.41 13656.52,5523.40 13784.54,5337.16 13951.18,5084.36 14116.44,4804.87 14268.70,4532.59 14393.33,4294.46 14553.71,3962.74 14688.35,3657.59 14793.98,3395.90 14878.31,3145.52 14958.13,2910.50 15003.57,2770.91 15028.80,2688.52 15083.27,2502.53 15160.62,2215.61 15196.58,2064.05 15268.55,1770.01 15329.72,1437.51 15352.11,1253.22 15395.33,928.91 15405.99,830.31 15421.94,661.35 15429.71,567.04 15439.98,421.41 15469.26,0.22"/>
        <param key="ref" value="G15"/>
    </edge>
    <edge id="1389427542" from="12861763981" to="269642980" priority="14" type="highway.motorway" spreadType="center" shape="15480.81,6.25 15433.62,677.14 15406.01,932.41 15353.79,1326.81 15314.37,1563.60 15248.16,1896.18 15178.63,2195.89 15080.21,2562.25 14999.92,2826.32 14926.63,3047.04 14846.65,3269.97 14734.40,3559.07 14636.32,3791.17 14534.95,4016.22 14383.95,4325.58 14278.86,4527.75 14123.60,4805.47 13959.39,5092.21 13794.08,5341.65 13664.80,5531.85 13357.70,5947.26 12104.84,7510.65 11855.31,7818.63 11541.60,8205.41 10802.08,9119.51 9201.00,11071.27 8312.40,12168.01 8170.16,12352.96 8034.28,12540.32 7842.17,12819.38 7727.84,12994.37 7557.84,13274.67 7411.80,13527.56 7249.42,13837.64 6748.39,14845.49 6644.61,15050.12 5337.18,17688.28 3198.21,21968.39 3094.09,22159.15">
        <lane id="1389427542_0" index="0" allow="private emergency authority army vip passenger hov taxi bus coach delivery truck trailer motorcycle evehicle custom1 custom2" speed="27.78" length="25707.57" shape="15484.00,6.47 15436.81,677.42 15409.18,932.80 15356.96,1327.28 15317.52,1564.18 15251.29,1896.86 15181.74,2196.67 15083.28,2563.13 15002.97,2827.29 14929.65,3048.08 14849.64,3271.09 14737.36,3560.27 14639.25,3792.45 14537.85,4017.58 14386.80,4327.02 14281.68,4529.27 14126.39,4807.04 13962.11,5093.89 13796.74,5343.43 13667.41,5533.70 13360.24,5949.21 12107.33,7512.66 11857.80,7820.64 11544.08,8207.43 10804.56,9121.53 9203.48,11073.29 8314.91,12170.00 8172.72,12354.87 8036.89,12542.17 7844.83,12821.16 7730.55,12996.08 7560.60,13276.30 7414.61,13529.10 7252.27,13839.09 6751.25,14846.92 6647.47,15051.56 5340.05,17689.70 3201.04,21969.87 3096.98,22160.53"/>
        <lane id="1389427542_1" index="1" allow="private emergency authority army vip passenger hov taxi bus coach delivery truck trailer motorcycle evehicle custom1 custom2" speed="27.78" length="25707.57" shape="15480.81,6.25 15433.62,677.14 15406.01,932.41 15353.79,1326.81 15314.37,1563.60 15248.16,1896.18 15178.63,2195.89 15080.21,2562.25 14999.92,2826.32 14926.63,3047.04 14846.65,3269.97 14734.40,3559.07 14636.32,3791.17 14534.95,4016.22 14383.95,4325.58 14278.86,4527.75 14123.60,4805.47 13959.39,5092.21 13794.08,5341.65 13664.80,5531.85 13357.70,5947.26 12104.84,7510.65 11855.31,7818.63 11541.60,8205.41 10802.08,9119.51 9201.00,11071.27 8312.40,12168.01 8170.16,12352.96 8034.28,12540.32 7842.17,12819.38 7727.84,12994.37 7557.84,13274.67 7411.80,13527.56 7249.42,13837.64 6748.39,14845.49 6644.61,15050.12 5337.18,17688.28 3198.21,21968.39 3094.17,22158.99"/>
        <lane id="1389427542_2" index="2" allow="private emergency authority army vip passenger hov taxi bus coach delivery truck trailer motorcycle evehicle custom1 custom2" speed="27.78" length="25707.57" shape="15477.62,6.02 15430.44,676.86 15402.83,932.03 15350.62,1326.34 15311.23,1563.03 15245.03,1895.51 15175.53,2195.11 15077.13,2561.37 14996.87,2825.35 14923.60,3045.99 14843.65,3268.85 14731.43,3557.86 14633.38,3789.89 14532.06,4014.86 14381.09,4324.14 14276.04,4526.23 14120.82,4803.89 13956.66,5090.53 13791.42,5339.86 13662.19,5530.00 13355.17,5945.30 12102.35,7508.64 11852.82,7816.61 11539.11,8203.40 10799.59,9117.48 9198.52,11069.25 8309.89,12166.03 8167.60,12351.04 8031.66,12538.48 7839.51,12817.59 7725.13,12992.67 7555.09,13273.04 7409.00,13526.01 7246.57,13836.18 6745.53,14844.05 6641.75,15048.69 5334.32,17686.85 3195.37,21966.90 3091.36,22157.46"/>
        <param key="ref" value="G15"/>
    </edge>
    <edge id="1419135118" from="13041085312" to="3633695505" priority="14" type="highway.motorway" spreadType="center">
        <lane id="1419135118_0" index="0" allow="private emergency authority army vip passenger hov taxi bus coach delivery truck trailer motorcycle evehicle custom1 custom2" speed="39.44" length="326.14" shape="2012.16,23734.59 1816.71,23995.67"/>
        <lane id="1419135118_1" index="1" allow="private emergency authority army vip passenger hov taxi bus coach delivery truck trailer motorcycle evehicle custom1 custom2" speed="39.44" length="326.14" shape="2009.60,23732.67 1814.15,23993.75"/>
        <lane id="1419135118_2" index="2" allow="private emergency authority army vip passenger hov taxi bus coach delivery truck trailer motorcycle evehicle custom1 custom2" speed="39.44" length="326.14" shape="2007.04,23730.75 1811.59,23991.83"/>
        <param key="ref" value="G15"/>
    </edge>
    <edge id="1419135119" from="13041085313" to="13041085312" priority="14" type="highway.motorway" spreadType="center" shape="2040.79,23693.33 2014.75,23726.63 2009.69,23732.55">
        <lane id="1419135119_0" index="0" allow="private emergency authority army vip passenger hov taxi bus coach delivery truck trailer motorcycle evehicle custom1 custom2" speed="39.44" length="49.73" shape="2043.20,23695.43 2017.23,23728.65 2012.23,23734.51"/>
        <lane id="1419135119_1" index="1" allow="private emergency authority army vip passenger hov taxi bus coach delivery truck trailer motorcycle evehicle custom1 custom2" speed="39.44" length="49.73" shape="2040.68,23693.46 2014.75,23726.63 2009.79,23732.43"/>
        <lane id="1419135119_2" index="2" allow="private emergency authority army vip passenger hov taxi bus coach delivery truck trailer motorcycle evehicle custom1 custom2" speed="39.44" length="49.73" shape="2038.16,23691.49 2012.27,23724.60 2007.36,23730.35"/>
        <param key="ref" value="G15"/>
    </edge>
    <edge id="1419135121" from="3633695503" to="13041085317" priority="14" type="highway.motorway" spreadType="center">
        <lane id="1419135121_0" index="0" allow="private emergency authority army vip passenger hov taxi bus coach delivery truck trailer motorcycle evehicle custom1 custom2" speed="39.44" length="327.56" shape="1799.33,23982.67 1995.18,23720.11"/>
        <lane id="1419135121_1" index="1" allow="private emergency authority army vip passenger hov taxi bus coach delivery truck trailer motorcycle evehicle custom1 custom2" speed="39.44" length="327.56" shape="1801.90,23984.58 1997.74,23722.02"/>
        <lane id="1419135121_2" index="2" allow="private emergency authority army vip passenger hov taxi bus coach delivery truck trailer motorcycle evehicle custom1 custom2" speed="39.44" length="327.56" shape="1804.47,23986.50 2000.31,23723.93"/>
        <param key="ref" value="G15"/>
    </edge>
    <edge id="1419135122" from="13041085317" to="13041085316" priority="14" type="highway.motorway" spreadType="center">
        <lane id="1419135122_0" index="0" allow="private emergency authority army vip passenger hov taxi bus coach delivery truck trailer motorcycle evehicle custom1 custom2" speed="39.44" length="48.01" shape="1995.37,23719.85 2024.34,23681.57"/>
        <lane id="1419135122_1" index="1" allow="private emergency authority army vip passenger hov taxi bus coach delivery truck trailer motorcycle evehicle custom1 custom2" speed="39.44" length="48.01" shape="1997.92,23721.78 2026.89,23683.50"/>
        <lane id="1419135122_2" index="2" allow="private emergency authority army vip passenger hov taxi bus coach delivery truck trailer motorcycle evehicle custom1 custom2" speed="39.44" length="48.01" shape="2000.48,23723.71 2029.44,23685.43"/>
        <param key="ref" value="G15"/>
    </edge>
    <edge id="226836273" from="2355708099" to="2355708101" priority="14" type="highway.motorway" spreadType="center" shape="190.41,26379.61 87.10,26580.87 25.37,26709.21 0.00,26759.28">
        <lane id="226836273_0" index="0" allow="private emergency authority army vip passenger hov taxi bus coach delivery truck trailer motorcycle evehicle custom1 custom2" speed="39.44" length="424.62" shape="193.19,26381.21 89.97,26582.29 28.24,26710.63 2.85,26760.72"/>
        <lane id="226836273_1" index="1" allow="private emergency authority army vip passenger hov taxi bus coach delivery truck trailer motorcycle evehicle custom1 custom2" speed="39.44" length="424.62" shape="190.34,26379.75 87.10,26580.87 25.37,26709.21 -0.00,26759.28"/>
        <lane id="226836273_2" index="2" allow="private emergency authority army vip passenger hov taxi bus coach delivery truck trailer motorcycle evehicle custom1 custom2" speed="39.44" length="424.62" shape="187.50,26378.28 84.24,26579.44 22.50,26707.80 -2.85,26757.83"/>
        <param key="ref" value="G15"/>
    </edge>
    <edge id="227098200" from="775074364" to="3633695582" priority="14" type="highway.motorway" spreadType="center" shape="235.43,26232.69 489.72,25799.79 715.86,25467.33 845.86,25280.99 1012.27,25056.51 1144.20,24878.55 1279.89,24692.02">
        <lane id="227098200_0" index="0" allow="private emergency authority army vip passenger hov taxi bus coach delivery truck trailer motorcycle evehicle custom1 custom2" speed="39.44" length="1862.83" shape="232.67,26231.07 487.01,25798.08 713.23,25465.52 843.26,25279.12 1009.70,25054.60 1141.63,24876.65 1277.22,24690.26"/>
        <lane id="227098200_1" index="1" allow="private emergency authority army vip passenger hov taxi bus coach delivery truck trailer motorcycle evehicle custom1 custom2" speed="39.44" length="1862.83" shape="235.43,26232.69 489.72,25799.79 715.86,25467.33 845.86,25280.99 1012.27,25056.51 1144.20,24878.55 1279.81,24692.14"/>
        <lane id="227098200_2" index="2" allow="private emergency authority army vip passenger hov taxi bus coach delivery truck trailer motorcycle evehicle custom1 custom2" speed="39.44" length="1862.83" shape="238.19,26234.31 492.42,25801.50 718.50,25469.15 848.46,25282.85 1014.84,25058.41 1146.78,24880.44 1282.40,24694.02"/>
        <param key="ref" value="G15"/>
    </edge>
    <edge id="24963101" from="269642983" to="13041085313" priority="14" type="highway.motorway" spreadType="center" shape="2618.81,22893.85 2408.69,23181.03 2079.46,23635.96 2040.79,23693.33">
        <lane id="24963101_0" index="0" allow="private emergency authority army vip passenger hov taxi bus coach delivery truck trailer motorcycle evehicle custom1 custom2" speed="39.44" length="986.28" shape="2621.31,22895.86 2411.28,23182.92 2082.09,23637.80 2043.53,23694.98"/>
        <lane id="24963101_1" index="1" allow="private emergency authority army vip passenger hov taxi bus coach delivery truck trailer motorcycle evehicle custom1 custom2" speed="39.44" length="986.28" shape="2618.73,22893.97 2408.69,23181.03 2079.46,23635.96 2040.88,23693.19"/>
        <lane id="24963101_2" index="2" allow="private emergency authority army vip passenger hov taxi bus coach delivery truck trailer motorcycle evehicle custom1 custom2" speed="39.44" length="986.28" shape="2616.14,22892.08 2406.11,23179.15 2076.84,23634.13 2038.23,23691.40"/>
        <param key="ref" value="G15"/>
    </edge>
    <edge id="358451761" from="3633695582" to="3633695503" priority="14" type="highway.motorway" spreadType="center" shape="1279.89,24692.02 1511.66,24379.08 1801.81,23984.70">
        <lane id="358451761_0" index="0" allow="private emergency authority army vip passenger hov taxi bus coach delivery truck trailer motorcycle evehicle custom1 custom2" speed="39.44" length="878.73" shape="1277.41,24690.00 1509.08,24377.18 1799.15,23982.93"/>
        <lane id="358451761_1" index="1" allow="private emergency authority army vip passenger hov taxi bus coach delivery truck trailer motorcycle evehicle custom1 custom2" speed="39.44" length="878.73" shape="1279.98,24691.90 1511.66,24379.08 1801.72,23984.82"/>
        <lane id="358451761_2" index="2" allow="private emergency authority army vip passenger hov taxi bus coach delivery truck trailer motorcycle evehicle custom1 custom2" speed="39.44" length="878.73" shape="1282.55,24693.81 1514.23,24380.98 1804.30,23986.72"/>
        <param key="ref" value="G15"/>
    </edge>
    <edge id="358451762" from="3633695505" to="3633695589" priority="14" type="highway.motorway" spreadType="center" shape="1814.06,23993.87 1492.02,24431.56 1292.54,24702.30">
        <lane id="358451762_0" index="0" allow="private emergency authority army vip passenger hov taxi bus coach delivery truck trailer motorcycle evehicle custom1 custom2" speed="39.44" length="879.39" shape="1816.55,23995.88 1494.59,24433.46 1295.21,24704.08"/>