<?xml version="1.0" encoding="UTF-8"?>
<routes xmlns:xsi="http://www.w3.org/2001/XMLSchema-instance" xsi:noNamespaceSchemaLocation="http://sumo.dlr.de/xsd/routes_file.xsd">

   <vType id="eTruck"
       vClass="truck"
       accel="0.8"
       decel="4.5"
       sigma="0.5"
       length="12"
       maxSpeed="33.33"
       color="0,0,1"
       mass="12000"
       guiShape="truck">
    <param key="has.battery.device" value="true"/>
    <param key="device.battery.capacity" value="600000"/>
    <param key="device.battery.efficiency" value="0.95"/>
    <param key="device.battery.chargeLevel" value="400000"/>
   </vType>


    <route id="r1" edges="E1"/>

    <vehicle id="truck_1" type="eTruck" route="r1" depart="0" departSpeed="max"/>

    <vehicle id="truck_2" type="eTruck" route="r1" depart="10" departSpeed="max"/>

</routes>



    