<?xml version="1.0" encoding="UTF-8"?>
<additional xmlns:xsi="http://www.w3.org/2001/XMLSchema-instance" xsi:noNamespaceSchemaLocation="http://sumo.dlr.de/xsd/additional_file.xsd">
    <chargingStation id="ERS_1"
                     lane="1389427542_0"
                     startPos="500.0"
                     endPos="5500.0"
                     power="400000.0"  
                     efficiency="0.95"
                     chargeInTransit="true"
                     /> 
</additional>
