<configuration>
    <input>
        <net-file value="highway.net.xml"/>
        <route-files value="ERS.rou.xml"/>
        <additional-files value="ERS.add.xml"/>
    </input>

    <time>
        <begin value="0"/>
        <step-length value="0.1"/>
    </time>

    <output>
        <battery-output value="battery_output.xml"/>
        <fcd-output value="fcd_output.xml"/>
    </output>
</configuration>
